LTspice 24.1.6 for Windows
Circuit: C:\Users\willt\OneDrive\Documents\LTspice\Draft3.net
Start Time: Tue Nov 11 16:10:29 2025
solver = Normal
Maximum thread count: 12
tnom = 27
temp = 27
method = trap
.OP point found by inspection.
Total elapsed time: 0.151 seconds.

Files loaded:
C:\Users\willt\OneDrive\Documents\LTspice\Draft3.net
C:\Users\willt\AppData\Local\LTspice\lib\sub\opamp.sub

